* NGSPICE file created from ALU_wrapper.ext - technology: scmos

* Black-box entry subcircuit for FILL abstract view
.subckt FILL vdd gnd
.ends

* Black-box entry subcircuit for AND2X2 abstract view
.subckt AND2X2 A B Y vdd gnd
.ends

* Black-box entry subcircuit for OAI21X1 abstract view
.subckt OAI21X1 A B C Y vdd gnd
.ends

* Black-box entry subcircuit for INVX1 abstract view
.subckt INVX1 A Y vdd gnd
.ends

* Black-box entry subcircuit for NAND3X1 abstract view
.subckt NAND3X1 A B C Y vdd gnd
.ends

* Black-box entry subcircuit for AOI21X1 abstract view
.subckt AOI21X1 A B C Y vdd gnd
.ends

* Black-box entry subcircuit for OAI22X1 abstract view
.subckt OAI22X1 A B C D Y vdd gnd
.ends

* Black-box entry subcircuit for NOR2X1 abstract view
.subckt NOR2X1 A B Y vdd gnd
.ends

* Black-box entry subcircuit for NAND2X1 abstract view
.subckt NAND2X1 A B Y vdd gnd
.ends

* Black-box entry subcircuit for XNOR2X1 abstract view
.subckt XNOR2X1 A B Y vdd gnd
.ends

* Black-box entry subcircuit for BUFX2 abstract view
.subckt BUFX2 A Y vdd gnd
.ends

* Black-box entry subcircuit for INVX4 abstract view
.subckt INVX4 A Y vdd gnd
.ends

* Black-box entry subcircuit for DFFSR abstract view
.subckt DFFSR D S R CLK Q vdd gnd
.ends

* Black-box entry subcircuit for INVX2 abstract view
.subckt INVX2 A Y vdd gnd
.ends

* Black-box entry subcircuit for OR2X2 abstract view
.subckt OR2X2 A B Y vdd gnd
.ends

* Black-box entry subcircuit for XOR2X1 abstract view
.subckt XOR2X1 A B Y vdd gnd
.ends

* Black-box entry subcircuit for NOR3X1 abstract view
.subckt NOR3X1 A B C Y vdd gnd
.ends

* Black-box entry subcircuit for AOI22X1 abstract view
.subckt AOI22X1 A B C D Y vdd gnd
.ends

* Black-box entry subcircuit for CLKBUF1 abstract view
.subckt CLKBUF1 A Y vdd gnd
.ends

* Black-box entry subcircuit for MUX2X1 abstract view
.subckt MUX2X1 A B S Y vdd gnd
.ends

* Black-box entry subcircuit for INVX8 abstract view
.subckt INVX8 A Y vdd gnd
.ends

.subckt ALU_wrapper gnd vdd ABCmd_i[7] ABCmd_i[6] ABCmd_i[5] ABCmd_i[4] ABCmd_i[3]
+ ABCmd_i[2] ABCmd_i[1] ABCmd_i[0] ACC_o[7] ACC_o[6] ACC_o[5] ACC_o[4] ACC_o[3] ACC_o[2]
+ ACC_o[1] ACC_o[0] Done_LED Done_o LoadA_i LoadB_i LoadCmd_i clk reset
XFILL_3__1537_ vdd gnd FILL
XFILL_3__1606_ vdd gnd FILL
XFILL_0__1759_ vdd gnd FILL
XFILL_1__1670_ vdd gnd FILL
XFILL_3__1399_ vdd gnd FILL
XFILL_2__992_ vdd gnd FILL
XFILL_1__1104_ vdd gnd FILL
XFILL_1__1035_ vdd gnd FILL
XFILL_1__1799_ vdd gnd FILL
XFILL93750x150 vdd gnd FILL
XFILL_2__1213_ vdd gnd FILL
XFILL_2__1075_ vdd gnd FILL
XFILL_2__1144_ vdd gnd FILL
XFILL_0__1544_ vdd gnd FILL
X_1270_ _1292_/B _1370_/A _1422_/A vdd gnd AND2X2
XFILL_3__1322_ vdd gnd FILL
XFILL_3__957_ vdd gnd FILL
XFILL_0__1475_ vdd gnd FILL
XFILL_3__1253_ vdd gnd FILL
X_1606_ _946_/A _918_/C _1606_/C _1631_/D vdd gnd OAI21X1
X_1537_ _1558_/A _1561_/A vdd gnd INVX1
XFILL_1__1722_ vdd gnd FILL
X_1468_ _1468_/A _1510_/A _1468_/C _1510_/B vdd gnd NAND3X1
XFILL_1__1653_ vdd gnd FILL
X_1399_ _1406_/A _1406_/B _1441_/A vdd gnd AND2X2
XFILL_1__1584_ vdd gnd FILL
XFILL_2__975_ vdd gnd FILL
XFILL_2__1762_ vdd gnd FILL
XFILL_1__1018_ vdd gnd FILL
X_981_ _981_/A _981_/B _981_/C _982_/B vdd gnd AOI21X1
XFILL_2__1693_ vdd gnd FILL
XFILL_0__1260_ vdd gnd FILL
XFILL_0__1191_ vdd gnd FILL
XFILL_2__1127_ vdd gnd FILL
XFILL_2__1058_ vdd gnd FILL
X_1322_ _1325_/B _1325_/A _1322_/C _1322_/D _1341_/A vdd gnd OAI22X1
XFILL_1__993_ vdd gnd FILL
X_1253_ _1338_/A _1342_/B _1338_/C _1339_/B vdd gnd OAI21X1
XFILL_0__1527_ vdd gnd FILL
X_1184_ _1184_/A _1185_/C vdd gnd INVX1
XFILL_0__1458_ vdd gnd FILL
XFILL_0__1389_ vdd gnd FILL
XFILL_3__1167_ vdd gnd FILL
XFILL_3__1098_ vdd gnd FILL
XFILL_1__1705_ vdd gnd FILL
XFILL_1__1636_ vdd gnd FILL
XFILL_1__1567_ vdd gnd FILL
XFILL_1__1498_ vdd gnd FILL
XFILL_2__889_ vdd gnd FILL
XFILL_2__958_ vdd gnd FILL
XFILL_2__1814_ vdd gnd FILL
X_895_ _898_/A _899_/A _896_/B vdd gnd NOR2X1
XFILL_2__1745_ vdd gnd FILL
X_964_ _985_/A _988_/B _972_/A vdd gnd NAND2X1
XFILL_2__1676_ vdd gnd FILL
XFILL_0__1312_ vdd gnd FILL
XFILL_0__1174_ vdd gnd FILL
XFILL_0__1243_ vdd gnd FILL
XFILL_3__1785_ vdd gnd FILL
X_1305_ _1372_/B _1372_/A _1373_/B vdd gnd XNOR2X1
XFILL_1__976_ vdd gnd FILL
X_1236_ _1329_/B _1307_/B _1248_/A vdd gnd NAND2X1
XFILL_1__1283_ vdd gnd FILL
XFILL_1__1421_ vdd gnd FILL
X_1167_ _999_/A _988_/A _1186_/B vdd gnd NAND2X1
XFILL_3__1219_ vdd gnd FILL
X_1098_ _979_/B _1301_/A _1098_/C _1099_/C vdd gnd OAI21X1
XFILL_1__1352_ vdd gnd FILL
XBUFX2_insert0 _1612_/Q _978_/A vdd gnd BUFX2
XFILL_2__1530_ vdd gnd FILL
XFILL_3_CLKBUF1_insert12 vdd gnd FILL
XFILL_2__1461_ vdd gnd FILL
XFILL_2__1392_ vdd gnd FILL
XFILL_0__994_ vdd gnd FILL
X_947_ ABCmd_i[7] _949_/A vdd gnd INVX4
XFILL_0__1792_ vdd gnd FILL
XFILL_3__1570_ vdd gnd FILL
XFILL_2__1728_ vdd gnd FILL
XFILL_2__1659_ vdd gnd FILL
X_1021_ _1082_/A _1760_/A _1325_/B vdd gnd AND2X2
X_1785_ _1809_/B _1809_/C _1809_/A _1803_/C vdd gnd OAI21X1
XFILL_0__1226_ vdd gnd FILL
XFILL_0__1157_ vdd gnd FILL
XFILL_3__1004_ vdd gnd FILL
XFILL_3__1768_ vdd gnd FILL
XFILL_0__1088_ vdd gnd FILL
XFILL_3__1699_ vdd gnd FILL
XFILL_1__1404_ vdd gnd FILL
X_1219_ _1257_/B _1257_/A _1299_/A vdd gnd NAND2X1
XFILL_1__959_ vdd gnd FILL
XFILL_1__1266_ vdd gnd FILL
XFILL_1__1335_ vdd gnd FILL
XFILL_1__1197_ vdd gnd FILL
XFILL_2__1513_ vdd gnd FILL
XFILL_2__1444_ vdd gnd FILL
XFILL_2__1375_ vdd gnd FILL
XFILL_0__1011_ vdd gnd FILL
XFILL_0__977_ vdd gnd FILL
X_1570_ _1570_/A _1570_/B _1570_/C _1572_/B vdd gnd AOI21X1
XFILL_0__1775_ vdd gnd FILL
XFILL_3__1553_ vdd gnd FILL
XFILL_1__1120_ vdd gnd FILL
X_1004_ _953_/B _1211_/A _980_/A _1005_/A vdd gnd OAI21X1
X_1768_ _1768_/A _1768_/B _1768_/C _1769_/A vdd gnd AOI21X1
XFILL_1__1051_ vdd gnd FILL
XFILL_0__1209_ vdd gnd FILL
X_1699_ _1700_/A _988_/A _1783_/C _1700_/C vdd gnd OAI21X1
XFILL_2__1160_ vdd gnd FILL
XFILL_0__900_ vdd gnd FILL
XFILL_1__1318_ vdd gnd FILL
XFILL_1__1249_ vdd gnd FILL
XFILL_2__1091_ vdd gnd FILL
XFILL_3__973_ vdd gnd FILL
XFILL_0__1560_ vdd gnd FILL
XFILL_2__1427_ vdd gnd FILL
XFILL_2__1358_ vdd gnd FILL
XFILL_0__1491_ vdd gnd FILL
XFILL_2__1289_ vdd gnd FILL
X_1622_ _1622_/D vdd _1635_/R _1635_/CLK _1823_/A vdd gnd DFFSR
X_1553_ _1754_/Y _1554_/B vdd gnd INVX1
XFILL_2_BUFX2_insert14 vdd gnd FILL
X_1484_ _949_/A _1484_/B _1484_/C _1485_/A vdd gnd OAI21X1
XFILL_2_BUFX2_insert25 vdd gnd FILL
XFILL_2_BUFX2_insert36 vdd gnd FILL
XFILL_0__1827_ vdd gnd FILL
XFILL_0__1689_ vdd gnd FILL
XFILL_0__1758_ vdd gnd FILL
XFILL_3__1467_ vdd gnd FILL
XFILL_3__1398_ vdd gnd FILL
XFILL_2__991_ vdd gnd FILL
XFILL_1__1034_ vdd gnd FILL
XFILL_1__1103_ vdd gnd FILL
XFILL_1__1798_ vdd gnd FILL
XFILL_1_BUFX2_insert0 vdd gnd FILL
XFILL_2__1212_ vdd gnd FILL
XFILL_2__1143_ vdd gnd FILL
XFILL_2__1074_ vdd gnd FILL
XFILL_0__1543_ vdd gnd FILL
XFILL_0__1474_ vdd gnd FILL
XFILL_3__1183_ vdd gnd FILL
X_1605_ _1760_/A _918_/C _1606_/C vdd gnd NAND2X1
X_1536_ _1560_/A _1560_/C _1548_/B vdd gnd NAND2X1
XFILL_1__1583_ vdd gnd FILL
XFILL_1__1721_ vdd gnd FILL
XFILL_1__1652_ vdd gnd FILL
X_1467_ _1467_/A _1467_/B _1467_/C _1468_/C vdd gnd OAI21X1
X_1398_ _1441_/C _1462_/B _1462_/A _1471_/A vdd gnd OAI21X1
XFILL_3__1519_ vdd gnd FILL
XFILL_1__1017_ vdd gnd FILL
XFILL_2__974_ vdd gnd FILL
XFILL_2__1761_ vdd gnd FILL
XFILL_2__1692_ vdd gnd FILL
X_980_ _980_/A _980_/B _980_/C _982_/A vdd gnd OAI21X1
XFILL_0__1190_ vdd gnd FILL
XFILL_2__1126_ vdd gnd FILL
XFILL_2__1057_ vdd gnd FILL
XFILL_3__939_ vdd gnd FILL
X_1321_ _1323_/B _1323_/C _1379_/A _1322_/D vdd gnd AOI21X1
XFILL_1__992_ vdd gnd FILL
X_1252_ _1298_/A _1298_/B _1298_/C _1299_/C vdd gnd NAND3X1
XFILL_0__1526_ vdd gnd FILL
XFILL_0__1457_ vdd gnd FILL
XFILL_3__1304_ vdd gnd FILL
XFILL_3__1235_ vdd gnd FILL
X_1183_ _975_/A _1193_/A _1183_/C _1480_/A vdd gnd NAND3X1
XFILL_0__1388_ vdd gnd FILL
XFILL_3__1166_ vdd gnd FILL
X_1519_ _1521_/A _1521_/B _1520_/C vdd gnd NAND2X1
XFILL_1__1704_ vdd gnd FILL
XFILL_1__1566_ vdd gnd FILL
XFILL_1__1497_ vdd gnd FILL
XFILL_2__957_ vdd gnd FILL
XFILL_2__1813_ vdd gnd FILL
X_894_ _915_/A _899_/A vdd gnd INVX2
XFILL_2__1744_ vdd gnd FILL
XFILL_2__1675_ vdd gnd FILL
X_963_ _983_/A _995_/A vdd gnd INVX1
XFILL_0__1311_ vdd gnd FILL
XFILL_3__1020_ vdd gnd FILL
XFILL_2__1109_ vdd gnd FILL
XFILL_0__1173_ vdd gnd FILL
XFILL_0__1242_ vdd gnd FILL
XBUFX2_insert1 _1612_/Q _936_/A vdd gnd BUFX2
XFILL_1__1420_ vdd gnd FILL
X_1304_ _1304_/A _1304_/B _1304_/C _1304_/D _1372_/B vdd gnd OAI22X1
X_1166_ _960_/A _1361_/A _1169_/C vdd gnd OR2X2
XFILL_1__975_ vdd gnd FILL
X_1235_ _1387_/A _1387_/B _1329_/B vdd gnd XOR2X1
XFILL_1__1282_ vdd gnd FILL
XFILL_0__1509_ vdd gnd FILL
XFILL_1__1351_ vdd gnd FILL
XFILL_3__1149_ vdd gnd FILL
X_1097_ _953_/B _969_/B _1114_/B _1099_/B vdd gnd OAI21X1
XFILL_1__1549_ vdd gnd FILL
XFILL_2__1460_ vdd gnd FILL
XFILL_2__1391_ vdd gnd FILL
XFILL_0__993_ vdd gnd FILL
XFILL_0__1791_ vdd gnd FILL
XFILL_2__1727_ vdd gnd FILL
X_946_ _946_/A _946_/B _946_/C _946_/Y vdd gnd OAI21X1
XFILL_2__1658_ vdd gnd FILL
X_1020_ _996_/A _997_/B _997_/C _1053_/A vdd gnd OAI21X1
XFILL_2__1589_ vdd gnd FILL
XFILL_3__1003_ vdd gnd FILL
X_1784_ _1784_/A _948_/A _1784_/C _1809_/C vdd gnd AOI21X1
XFILL_0__1225_ vdd gnd FILL
XFILL_0__1156_ vdd gnd FILL
XFILL_0__1087_ vdd gnd FILL
XFILL_3__1767_ vdd gnd FILL
XFILL_1__889_ vdd gnd FILL
XFILL_1__1403_ vdd gnd FILL
X_1149_ _1151_/C _1151_/B _1151_/A _1174_/A vdd gnd AOI21X1
X_1218_ _1296_/B _1218_/B _1296_/A _1257_/B vdd gnd OAI21X1
XFILL_1__958_ vdd gnd FILL
XFILL_1__1265_ vdd gnd FILL
XFILL_1__1196_ vdd gnd FILL
XFILL_1__1334_ vdd gnd FILL
XFILL_2__1512_ vdd gnd FILL
XFILL_2__1443_ vdd gnd FILL
XFILL_2__1374_ vdd gnd FILL
XFILL_0__1010_ vdd gnd FILL
XFILL_0__976_ vdd gnd FILL
XFILL_0__1774_ vdd gnd FILL
XFILL_3__1483_ vdd gnd FILL
X_929_ ABCmd_i[1] _931_/A vdd gnd INVX1
X_1003_ _962_/B _1211_/A vdd gnd INVX1
XFILL_1__1050_ vdd gnd FILL
X_1767_ ABCmd_i[6] _1768_/C vdd gnd INVX1
X_1698_ _1698_/A _1698_/B _1698_/C _1708_/A vdd gnd OAI21X1
XFILL_0__1208_ vdd gnd FILL
XFILL_0__1139_ vdd gnd FILL
XFILL_1__1317_ vdd gnd FILL
XFILL_1__1179_ vdd gnd FILL
XFILL_2__1090_ vdd gnd FILL
XFILL_1__1248_ vdd gnd FILL
XFILL_2__1426_ vdd gnd FILL
XFILL_0__1490_ vdd gnd FILL
XFILL_2__1357_ vdd gnd FILL
XFILL_2__1288_ vdd gnd FILL
X_1621_ _1621_/D vdd _1623_/R _1632_/CLK _1822_/A vdd gnd DFFSR
XFILL_2_BUFX2_insert15 vdd gnd FILL
XFILL_2_BUFX2_insert26 vdd gnd FILL
X_1552_ _1552_/A _1576_/C ABCmd_i[7] _1555_/A vdd gnd OAI21X1
XFILL_0__959_ vdd gnd FILL
XFILL_0__1826_ vdd gnd FILL
XFILL_3__1535_ vdd gnd FILL
X_1483_ _1769_/B _949_/A _1484_/C vdd gnd NAND2X1
XFILL_3__1604_ vdd gnd FILL
XFILL_2_BUFX2_insert37 vdd gnd FILL
XFILL_0__1757_ vdd gnd FILL
XFILL_0__1688_ vdd gnd FILL
XFILL_3__1466_ vdd gnd FILL
XFILL_2__990_ vdd gnd FILL
XFILL_1__1033_ vdd gnd FILL
XFILL_1__1102_ vdd gnd FILL
X_1819_ _1819_/A ACC_o[1] vdd gnd BUFX2
XFILL_1__1797_ vdd gnd FILL
XFILL_1_BUFX2_insert1 vdd gnd FILL
XFILL_2__1073_ vdd gnd FILL
XFILL_2__1142_ vdd gnd FILL
XFILL_2__1211_ vdd gnd FILL
XFILL_0_CLKBUF1_insert8 vdd gnd FILL
XFILL94350x50850 vdd gnd FILL
XFILL_3__955_ vdd gnd FILL
XFILL94050x85950 vdd gnd FILL
XFILL_0__1542_ vdd gnd FILL
XFILL_0__1473_ vdd gnd FILL
XFILL_2__1409_ vdd gnd FILL
XFILL_3__1320_ vdd gnd FILL
XFILL_3__1251_ vdd gnd FILL
XFILL_3__1182_ vdd gnd FILL
XFILL_1__1720_ vdd gnd FILL
X_1535_ _1535_/A _1586_/C vdd gnd INVX1
X_1604_ _943_/A _1604_/B _1604_/C _1630_/D vdd gnd OAI21X1
XFILL_0__1809_ vdd gnd FILL
XFILL_1__1582_ vdd gnd FILL
X_1466_ _1506_/B _1466_/B _1466_/C _1510_/A vdd gnd NAND3X1
XFILL_1__1651_ vdd gnd FILL
X_1397_ _1441_/B _1462_/B vdd gnd INVX1
XFILL_3__1449_ vdd gnd FILL
XFILL_2__973_ vdd gnd FILL
XFILL_1__1016_ vdd gnd FILL
XFILL_2__1760_ vdd gnd FILL
XFILL_2__1691_ vdd gnd FILL
XFILL_2__1125_ vdd gnd FILL
XFILL_2__1056_ vdd gnd FILL
XFILL94350x62550 vdd gnd FILL
X_1320_ _1496_/A _979_/B _1320_/C _1323_/C vdd gnd OAI21X1
XFILL_3__938_ vdd gnd FILL
XFILL_1__991_ vdd gnd FILL
X_1251_ _1257_/A _1257_/B _1339_/A vdd gnd AND2X2
X_1182_ _1194_/A _1183_/C vdd gnd INVX1
XFILL_0__1525_ vdd gnd FILL
XFILL_0__1456_ vdd gnd FILL
XFILL_3__1303_ vdd gnd FILL
XFILL_0__1387_ vdd gnd FILL
XFILL_3__1096_ vdd gnd FILL
X_1518_ _1570_/A _1570_/B _1548_/A _1549_/B vdd gnd AOI21X1
XFILL_1__1703_ vdd gnd FILL
X_1449_ _1449_/A _1488_/C _1449_/C _1460_/C vdd gnd NAND3X1
XFILL_1__1565_ vdd gnd FILL
XFILL_1__1496_ vdd gnd FILL
XFILL_2__956_ vdd gnd FILL
XFILL_2__1812_ vdd gnd FILL
X_893_ _904_/B _898_/B vdd gnd INVX1
XFILL_2__1743_ vdd gnd FILL
XFILL_2__1674_ vdd gnd FILL
X_962_ _988_/A _962_/B _983_/A vdd gnd NAND2X1
XFILL_0__1310_ vdd gnd FILL
XFILL_0__1241_ vdd gnd FILL
XFILL94350x74250 vdd gnd FILL
XFILL_2__1108_ vdd gnd FILL
XFILL_2__1039_ vdd gnd FILL
XFILL_0__1172_ vdd gnd FILL
XFILL_3__1783_ vdd gnd FILL
X_1303_ _1303_/A _1303_/B _1304_/B vdd gnd NAND2X1
XFILL_1__974_ vdd gnd FILL
XBUFX2_insert2 _1612_/Q _952_/A vdd gnd BUFX2
X_1165_ _986_/A _978_/B _1361_/A vdd gnd NAND2X1
XFILL_1__1350_ vdd gnd FILL
X_1096_ _1096_/A _1096_/B _1212_/C _1105_/A vdd gnd NAND3X1
X_1234_ _988_/A _1760_/A _1387_/B vdd gnd NAND2X1
XFILL_1__1281_ vdd gnd FILL
XFILL_0__1508_ vdd gnd FILL
XFILL_0__1439_ vdd gnd FILL
XFILL_3__1148_ vdd gnd FILL
XFILL_3__1217_ vdd gnd FILL
XFILL_1__1548_ vdd gnd FILL
XFILL_1__1479_ vdd gnd FILL
XFILL_2__1390_ vdd gnd FILL
XFILL_2__939_ vdd gnd FILL
XFILL_0__992_ vdd gnd FILL
X_945_ _945_/A _946_/B _946_/C vdd gnd NAND2X1
XFILL_0__1790_ vdd gnd FILL
XFILL_2__1726_ vdd gnd FILL
XFILL_2__1657_ vdd gnd FILL
XFILL_2__1588_ vdd gnd FILL
XFILL_0__1224_ vdd gnd FILL
X_1783_ _1784_/A _948_/A _1783_/C _1784_/C vdd gnd OAI21X1
XFILL_0__1155_ vdd gnd FILL
XFILL_0__1086_ vdd gnd FILL
XFILL_3__1697_ vdd gnd FILL
XFILL_1__957_ vdd gnd FILL
XFILL_1__1402_ vdd gnd FILL
XFILL_1__1333_ vdd gnd FILL
X_1148_ _983_/A _995_/B _983_/C _1151_/C vdd gnd NAND3X1
X_1217_ _1217_/A _1217_/B _1296_/B vdd gnd NOR2X1
X_1079_ _988_/A _1303_/A _1237_/B vdd gnd NAND2X1
XFILL_1__1195_ vdd gnd FILL
XFILL_1__1264_ vdd gnd FILL
XFILL_2__1511_ vdd gnd FILL
XFILL_2__1442_ vdd gnd FILL
XFILL_2__1373_ vdd gnd FILL
XFILL_0__975_ vdd gnd FILL
XFILL_0__1773_ vdd gnd FILL
XFILL_2__1709_ vdd gnd FILL
X_928_ _928_/A _940_/B _928_/C _928_/Y vdd gnd OAI21X1
XFILL_3__1551_ vdd gnd FILL
XFILL_3__1482_ vdd gnd FILL
X_1002_ _955_/A _1114_/A _1005_/C vdd gnd NAND2X1
XFILL_0__1207_ vdd gnd FILL
XFILL_3__1818_ vdd gnd FILL
X_1766_ _1804_/B _1805_/A _1795_/B vdd gnd NAND2X1
X_1697_ _962_/B _1697_/B _1802_/B _1698_/B vdd gnd OAI21X1
XFILL_0__1138_ vdd gnd FILL
XFILL_0__1069_ vdd gnd FILL
XFILL_3__1749_ vdd gnd FILL
XFILL_1__1316_ vdd gnd FILL
XFILL_1__1178_ vdd gnd FILL
XFILL_1__1247_ vdd gnd FILL
XFILL_3__971_ vdd gnd FILL
XFILL_2__1425_ vdd gnd FILL
XFILL_2__1356_ vdd gnd FILL
XFILL_2__1287_ vdd gnd FILL
XFILL_0__958_ vdd gnd FILL
XFILL_0__889_ vdd gnd FILL
X_1620_ _1620_/D vdd _1635_/R _1635_/CLK _1821_/A vdd gnd DFFSR
XFILL_2_BUFX2_insert16 vdd gnd FILL
XFILL_2_BUFX2_insert38 vdd gnd FILL
XFILL_2_BUFX2_insert27 vdd gnd FILL
X_1482_ _1528_/C _1482_/B _1484_/B vdd gnd NAND2X1
X_1551_ _1551_/A _1551_/B _1551_/C _1552_/A vdd gnd AOI21X1
XFILL_0__1825_ vdd gnd FILL
XFILL_0__1756_ vdd gnd FILL
XFILL_3__1603_ vdd gnd FILL
XFILL_0__1687_ vdd gnd FILL
XFILL_3__1396_ vdd gnd FILL
XFILL_1__1101_ vdd gnd FILL
X_1818_ _950_/A ACC_o[0] vdd gnd BUFX2
XFILL_1__1032_ vdd gnd FILL
X_1749_ _1784_/A _999_/B _1749_/C _1771_/A vdd gnd AOI21X1
XFILL_1__1796_ vdd gnd FILL
XFILL_1_BUFX2_insert2 vdd gnd FILL
XFILL_2__1210_ vdd gnd FILL
XFILL_2__1072_ vdd gnd FILL
XFILL_2__1141_ vdd gnd FILL
XFILL_0_CLKBUF1_insert9 vdd gnd FILL
XFILL_3__954_ vdd gnd FILL
XFILL_0__1541_ vdd gnd FILL
XFILL_0__1472_ vdd gnd FILL
XFILL_2__1408_ vdd gnd FILL
XFILL_2__1339_ vdd gnd FILL
X_1534_ _1823_/A _1556_/A vdd gnd INVX1
X_1603_ _1746_/A _1607_/B _1604_/C vdd gnd NAND2X1
X_1465_ _1465_/A _1465_/B _1465_/C _1473_/A vdd gnd NAND3X1
XFILL_0__1808_ vdd gnd FILL
XFILL_0__1739_ vdd gnd FILL
XFILL_1__1581_ vdd gnd FILL
XFILL_3__1517_ vdd gnd FILL
XFILL_3__1448_ vdd gnd FILL
XFILL_1__1650_ vdd gnd FILL
X_1396_ _1400_/A _1400_/B _1408_/A _1441_/B vdd gnd NAND3X1
XFILL_3__1379_ vdd gnd FILL
XFILL_2__972_ vdd gnd FILL
XFILL_1__1015_ vdd gnd FILL
XFILL_1__1779_ vdd gnd FILL
XFILL_2__1690_ vdd gnd FILL
XFILL_2__1124_ vdd gnd FILL
XFILL_2__1055_ vdd gnd FILL
XFILL_1__990_ vdd gnd FILL
XFILL_0__1524_ vdd gnd FILL
X_1250_ _1299_/A _1258_/B _1258_/A _1350_/A vdd gnd NAND3X1
X_1181_ _1551_/A _1203_/A _1203_/B _1204_/C vdd gnd NOR3X1
XFILL_0__1455_ vdd gnd FILL
XFILL_0__1386_ vdd gnd FILL
XFILL_3__1233_ vdd gnd FILL
XFILL_3__1164_ vdd gnd FILL
XFILL_3__1095_ vdd gnd FILL
XFILL_1__1702_ vdd gnd FILL
X_1517_ _1521_/A _1521_/B _1517_/C _1521_/C _1570_/A vdd gnd AOI22X1
X_1448_ _1488_/B _1449_/C vdd gnd INVX1
XFILL_1__1564_ vdd gnd FILL
XFILL_1__1495_ vdd gnd FILL
X_1379_ _1379_/A _1379_/B _1379_/C _1384_/B vdd gnd OAI21X1
XFILL_2__955_ vdd gnd FILL
XFILL_2__1811_ vdd gnd FILL
XFILL_2__1742_ vdd gnd FILL
X_961_ _961_/A _961_/B _961_/C _981_/C vdd gnd OAI21X1
X_892_ _892_/A _909_/B vdd gnd INVX1
XFILL_2__1673_ vdd gnd FILL
XFILL_0__1240_ vdd gnd FILL
XFILL_2__1107_ vdd gnd FILL
XFILL_2__1038_ vdd gnd FILL
XFILL_0__1171_ vdd gnd FILL
X_1302_ _1391_/B _986_/D _1304_/A vdd gnd NAND2X1
XFILL_1__973_ vdd gnd FILL
X_1233_ _1233_/A _1233_/B _1233_/C _1307_/B vdd gnd AOI21X1
XFILL_1__1280_ vdd gnd FILL
XFILL_0__1507_ vdd gnd FILL
XBUFX2_insert3 _1612_/Q _1391_/B vdd gnd BUFX2
X_1164_ _1164_/A _1164_/B _961_/C _1172_/A vdd gnd NAND3X1
X_1095_ _1212_/B _1096_/B vdd gnd INVX1
XFILL_0__1438_ vdd gnd FILL
XFILL_0__1369_ vdd gnd FILL
XFILL_3__1216_ vdd gnd FILL
XFILL_3__1078_ vdd gnd FILL
XFILL_1_BUFX2_insert40 vdd gnd FILL
XFILL_1__1547_ vdd gnd FILL
XFILL_1__1478_ vdd gnd FILL
XFILL_0__991_ vdd gnd FILL
XFILL_2__938_ vdd gnd FILL
X_944_ ABCmd_i[6] _946_/A vdd gnd INVX1
XFILL_2__1725_ vdd gnd FILL
XFILL_2__1656_ vdd gnd FILL
XFILL_2__1587_ vdd gnd FILL
XFILL_0__1223_ vdd gnd FILL
XFILL_0__1154_ vdd gnd FILL
XFILL_3__1001_ vdd gnd FILL
X_1782_ _1782_/A _1782_/B _1782_/C _1809_/A vdd gnd OAI21X1
XFILL_0__1085_ vdd gnd FILL
XFILL_3__1765_ vdd gnd FILL
XFILL_3__1696_ vdd gnd FILL
X_1216_ _1217_/B _1217_/A _1218_/B vdd gnd AND2X2
XFILL_1__956_ vdd gnd FILL
XFILL_1__1401_ vdd gnd FILL
XFILL_1__1263_ vdd gnd FILL
X_1147_ _995_/C _983_/B _995_/A _1151_/B vdd gnd OAI21X1
X_1078_ _1237_/A _1233_/A vdd gnd INVX1
XFILL_1__1332_ vdd gnd FILL
XFILL_1__1194_ vdd gnd FILL
XFILL_2__1510_ vdd gnd FILL
XFILL_2__1441_ vdd gnd FILL
XFILL_2__1372_ vdd gnd FILL
XFILL_0__974_ vdd gnd FILL
XFILL_0__1772_ vdd gnd FILL
XFILL_3__1550_ vdd gnd FILL
X_927_ _986_/A _943_/B _928_/C vdd gnd NAND2X1
XFILL_2__1708_ vdd gnd FILL
XCLKBUF1_insert10 clk _1635_/CLK vdd gnd CLKBUF1
XFILL_2__1639_ vdd gnd FILL
X_1001_ _978_/A _962_/B _1114_/A vdd gnd AND2X2
X_1765_ _1765_/A _1765_/B _1803_/A _1804_/B vdd gnd OAI21X1
XFILL_0__1206_ vdd gnd FILL
XFILL_0__1137_ vdd gnd FILL
XFILL_3__1817_ vdd gnd FILL
X_1696_ ABCmd_i[0] _1696_/B _1697_/B vdd gnd NOR2X1
XFILL_0__1068_ vdd gnd FILL
XFILL_1__939_ vdd gnd FILL
XFILL_1__1315_ vdd gnd FILL
XFILL_1__1246_ vdd gnd FILL
XFILL_1__1177_ vdd gnd FILL
XFILL_3__970_ vdd gnd FILL
XFILL_2__1424_ vdd gnd FILL
XFILL_2__1355_ vdd gnd FILL
XFILL_0__957_ vdd gnd FILL
XFILL_2__1286_ vdd gnd FILL
XFILL_2_BUFX2_insert28 vdd gnd FILL
X_1550_ _1586_/C _1550_/B _1550_/C _1556_/C vdd gnd NAND3X1
XFILL_2_BUFX2_insert17 vdd gnd FILL
XFILL_2_BUFX2_insert39 vdd gnd FILL
X_1481_ _1481_/A _1481_/B _1482_/B vdd gnd NAND2X1
XFILL_0__1824_ vdd gnd FILL
XFILL_3__1533_ vdd gnd FILL
XFILL_0__1755_ vdd gnd FILL
XFILL_0__1686_ vdd gnd FILL
XFILL_3__1464_ vdd gnd FILL
XFILL93450x74250 vdd gnd FILL
XFILL_3__1395_ vdd gnd FILL
XFILL_1__1100_ vdd gnd FILL
X_1817_ _1817_/A _1817_/B _1817_/Y vdd gnd NAND2X1
X_1748_ _932_/A _999_/B _1783_/C _1749_/C vdd gnd OAI21X1
XFILL_1__1031_ vdd gnd FILL
XFILL_1__1795_ vdd gnd FILL
XFILL_1_BUFX2_insert3 vdd gnd FILL
X_1679_ _967_/A _1679_/B _1680_/A vdd gnd NAND2X1
XFILL_2__1140_ vdd gnd FILL
XFILL_1__1229_ vdd gnd FILL
XFILL_2__1071_ vdd gnd FILL
XFILL_0__1540_ vdd gnd FILL
XFILL_2__1407_ vdd gnd FILL
XFILL_0__1471_ vdd gnd FILL
XFILL_2__1269_ vdd gnd FILL
XFILL_3__1180_ vdd gnd FILL
XFILL_2__1338_ vdd gnd FILL
X_1602_ _940_/A _1608_/B _1602_/C _1629_/D vdd gnd OAI21X1
X_1533_ _1533_/A _911_/A _1533_/C _1533_/D _1621_/D vdd gnd AOI22X1
X_1464_ _1467_/A _1467_/B _1466_/C _1465_/B vdd gnd OAI21X1
X_1395_ _1400_/A _1400_/B _1408_/A _1441_/C vdd gnd AOI21X1
XFILL_0__1807_ vdd gnd FILL
XFILL_0__1738_ vdd gnd FILL
XFILL_1__1580_ vdd gnd FILL
XFILL_3__1516_ vdd gnd FILL
XFILL_0__1669_ vdd gnd FILL
XFILL_2__971_ vdd gnd FILL
XFILL_1__1014_ vdd gnd FILL
XFILL_1__1778_ vdd gnd FILL
XFILL_2__1123_ vdd gnd FILL
XFILL_2__1054_ vdd gnd FILL
XFILL_3__936_ vdd gnd FILL
XFILL_0__1523_ vdd gnd FILL
XFILL_3__1232_ vdd gnd FILL
XFILL_3__1301_ vdd gnd FILL
X_1180_ _1286_/B _1286_/A _1180_/C _1203_/B vdd gnd AOI21X1
XFILL_0__1454_ vdd gnd FILL
XFILL_0__1385_ vdd gnd FILL
X_1516_ _1516_/A _1516_/B _1521_/B vdd gnd NAND2X1
XFILL_1__1701_ vdd gnd FILL
X_1447_ _1447_/A _1447_/B _1488_/B vdd gnd NOR2X1
X_1378_ _969_/B _1493_/A _1384_/A vdd gnd NOR2X1
XFILL_1__1563_ vdd gnd FILL
XFILL_1__1494_ vdd gnd FILL
XFILL_2__954_ vdd gnd FILL
X_891_ _915_/A _903_/A _892_/A vdd gnd NAND2X1
XFILL_2__1741_ vdd gnd FILL
XFILL_2__1810_ vdd gnd FILL
XFILL_2__1672_ vdd gnd FILL
X_960_ _960_/A _960_/B _961_/B vdd gnd AND2X2
XFILL_2__1106_ vdd gnd FILL
XFILL_0__1170_ vdd gnd FILL
XFILL_3__1781_ vdd gnd FILL
XFILL_2__1037_ vdd gnd FILL
X_1232_ _1247_/B _1247_/A _1330_/A vdd gnd NAND2X1
X_1301_ _1301_/A _1493_/A _1372_/A vdd gnd NOR2X1
XFILL_1__972_ vdd gnd FILL
XFILL_0__1437_ vdd gnd FILL
XFILL_0__1506_ vdd gnd FILL
XBUFX2_insert4 _1609_/Q _1655_/A vdd gnd BUFX2
X_1163_ _1163_/A _1163_/B _982_/C _1196_/B vdd gnd NAND3X1
X_1094_ _978_/A _986_/D _1303_/B _988_/B _1212_/B vdd gnd AOI22X1
XFILL_0__1368_ vdd gnd FILL
XFILL_0__1299_ vdd gnd FILL
XFILL_3__1146_ vdd gnd FILL
XFILL_3__1077_ vdd gnd FILL
XFILL_1__1546_ vdd gnd FILL
XFILL_1_BUFX2_insert41 vdd gnd FILL
XFILL_1_BUFX2_insert30 vdd gnd FILL
XFILL_2__937_ vdd gnd FILL
XFILL_1__1477_ vdd gnd FILL
XFILL_0__990_ vdd gnd FILL
XFILL_2__1724_ vdd gnd FILL
X_943_ _943_/A _943_/B _943_/C _943_/Y vdd gnd OAI21X1
XFILL_2__1655_ vdd gnd FILL
XFILL_2__1586_ vdd gnd FILL
X_1781_ _1781_/A _1781_/B _1802_/B _1782_/A vdd gnd OAI21X1
XFILL_0__1222_ vdd gnd FILL
XFILL_0__1153_ vdd gnd FILL
XFILL_0__1084_ vdd gnd FILL
XFILL_3__1764_ vdd gnd FILL
XFILL_1__1400_ vdd gnd FILL
X_1215_ _1215_/A _1296_/C _1215_/C _1257_/A vdd gnd NAND3X1
X_1146_ _1164_/B _1164_/A _1170_/A _1151_/A vdd gnd AOI21X1
XFILL_1__955_ vdd gnd FILL
XFILL_1__1262_ vdd gnd FILL
XFILL_1__1193_ vdd gnd FILL
XFILL_1__1331_ vdd gnd FILL
X_1077_ _1077_/A _1781_/A _1082_/A _1760_/A _1237_/A vdd gnd AOI22X1
XFILL_2__1371_ vdd gnd FILL
XFILL_2__1440_ vdd gnd FILL
XFILL_1__1529_ vdd gnd FILL
XFILL_0__973_ vdd gnd FILL
XFILL_0__1771_ vdd gnd FILL
XFILL_2__1707_ vdd gnd FILL
X_926_ ABCmd_i[0] _928_/A vdd gnd INVX1
XFILL_2__1638_ vdd gnd FILL
XFILL_3__1480_ vdd gnd FILL
X_1000_ _999_/Y _1005_/B vdd gnd INVX1
XCLKBUF1_insert11 clk _1632_/CLK vdd gnd CLKBUF1
XFILL_2__1569_ vdd gnd FILL
X_1764_ _1809_/B _1765_/B _1765_/A _1803_/A vdd gnd OAI21X1
XFILL_0__1205_ vdd gnd FILL
XFILL_0__1136_ vdd gnd FILL
XFILL_0__1067_ vdd gnd FILL
XFILL_3__1747_ vdd gnd FILL
X_1695_ _988_/A _1696_/B vdd gnd INVX1
XFILL_1__938_ vdd gnd FILL
XFILL_3__1678_ vdd gnd FILL
X_1129_ _1207_/B _1129_/B _1208_/A vdd gnd NAND2X1
XFILL_1__1314_ vdd gnd FILL
XFILL_1__1245_ vdd gnd FILL
XFILL_1__1176_ vdd gnd FILL
XFILL_2__1423_ vdd gnd FILL
XFILL_2__1354_ vdd gnd FILL
XFILL_2__1285_ vdd gnd FILL
XFILL_0__956_ vdd gnd FILL
XFILL_0__1823_ vdd gnd FILL
XFILL_3__1532_ vdd gnd FILL
XFILL_2_BUFX2_insert18 vdd gnd FILL
XFILL_2_BUFX2_insert29 vdd gnd FILL
XFILL_3__1601_ vdd gnd FILL
X_1480_ _1480_/A _1480_/B _1481_/B vdd gnd NAND2X1
X_909_ _915_/B _909_/B _924_/A _910_/C vdd gnd OAI21X1
XFILL_0__1754_ vdd gnd FILL
XFILL_0__1685_ vdd gnd FILL
XFILL93750x58650 vdd gnd FILL
XFILL_1__1030_ vdd gnd FILL
X_1816_ _1816_/A _1816_/B _1816_/C _1817_/B vdd gnd NAND3X1
X_1747_ _1747_/A _1747_/B _1747_/C _1772_/A vdd gnd OAI21X1
X_1678_ ABCmd_i[1] _1678_/B ABCmd_i[0] _1680_/B vdd gnd MUX2X1
XFILL_0__1119_ vdd gnd FILL
XFILL_1__1794_ vdd gnd FILL
XFILL_1_BUFX2_insert4 vdd gnd FILL
XFILL_1__1228_ vdd gnd FILL
XFILL_1__1159_ vdd gnd FILL
XFILL_2__1070_ vdd gnd FILL
XFILL_3__952_ vdd gnd FILL
XFILL_0__1470_ vdd gnd FILL
XFILL_2__1406_ vdd gnd FILL
XFILL_2__1268_ vdd gnd FILL
XFILL_2__1337_ vdd gnd FILL
X_1532_ _1532_/A _899_/A _911_/A _1533_/D vdd gnd AOI21X1
XFILL_0__939_ vdd gnd FILL
X_1601_ _986_/D _1608_/B _1602_/C vdd gnd NAND2X1
XFILL_2__1199_ vdd gnd FILL
XFILL_0__1806_ vdd gnd FILL
X_1463_ _1506_/B _1467_/B vdd gnd INVX1
X_1394_ _1394_/A _1445_/C _1408_/A vdd gnd XNOR2X1
XFILL_0__1737_ vdd gnd FILL
XFILL_0__1599_ vdd gnd FILL
XFILL_3__1446_ vdd gnd FILL
XFILL_0__1668_ vdd gnd FILL
XFILL_3__1377_ vdd gnd FILL
XFILL_2__970_ vdd gnd FILL
XFILL_1__1013_ vdd gnd FILL
XFILL_1__1777_ vdd gnd FILL
XFILL_2__1122_ vdd gnd FILL
XFILL_2__1053_ vdd gnd FILL
XFILL_0__1453_ vdd gnd FILL
XFILL_0__1522_ vdd gnd FILL
XFILL_3__1162_ vdd gnd FILL
XFILL_0__1384_ vdd gnd FILL
XFILL_3__1093_ vdd gnd FILL
XFILL_1__1700_ vdd gnd FILL
X_1515_ _1515_/A _1517_/C _1515_/C _1570_/B vdd gnd NAND3X1
XFILL_1__1562_ vdd gnd FILL
X_1446_ _1447_/A _1447_/B _1488_/C vdd gnd NAND2X1
X_1377_ _1439_/A _1382_/A vdd gnd INVX1
XFILL_1__1493_ vdd gnd FILL
XFILL_3__1429_ vdd gnd FILL
XFILL_2__953_ vdd gnd FILL
X_890_ _904_/B _904_/C _903_/A vdd gnd NOR2X1
XFILL_2__1740_ vdd gnd FILL
XFILL_2__1671_ vdd gnd FILL
XFILL_2__1105_ vdd gnd FILL
XFILL_2__1036_ vdd gnd FILL
XFILL_3__1780_ vdd gnd FILL
XFILL_3__918_ vdd gnd FILL
X_1231_ _1231_/A _1231_/B _1231_/C _1247_/B vdd gnd NAND3X1
XFILL_1__971_ vdd gnd FILL
X_1162_ _1162_/A _1162_/B _1203_/A _1205_/A vdd gnd AOI21X1
X_1300_ _962_/B _948_/A _1373_/A vdd gnd NAND2X1
XFILL_0__1436_ vdd gnd FILL
XFILL_0__1505_ vdd gnd FILL
XBUFX2_insert5 _1609_/Q _967_/A vdd gnd BUFX2
XFILL_3__1214_ vdd gnd FILL
X_1093_ _1114_/B _1098_/C _1212_/C vdd gnd NAND2X1
XFILL_3__1145_ vdd gnd FILL
XFILL_0__1298_ vdd gnd FILL
XFILL_0__1367_ vdd gnd FILL
XFILL_1_BUFX2_insert20 vdd gnd FILL
X_1429_ _1429_/A _1429_/B _1429_/C _1430_/A vdd gnd AOI21X1
XFILL_1_BUFX2_insert31 vdd gnd FILL
XFILL_1__1545_ vdd gnd FILL
XFILL_1__1476_ vdd gnd FILL
XFILL_1_CLKBUF1_insert10 vdd gnd FILL
XFILL_2__936_ vdd gnd FILL
XFILL_2__1585_ vdd gnd FILL
XFILL_2__1723_ vdd gnd FILL
X_942_ _999_/B _943_/B _943_/C vdd gnd NAND2X1
XFILL_2__1654_ vdd gnd FILL
XFILL_0__1221_ vdd gnd FILL
X_1780_ _1780_/A _948_/A _1780_/C _1780_/D _1782_/B vdd gnd AOI22X1
XFILL_2__1019_ vdd gnd FILL
XFILL_0__1152_ vdd gnd FILL
XFILL_0__1083_ vdd gnd FILL
XFILL_3__1694_ vdd gnd FILL
XFILL_1__954_ vdd gnd FILL
X_1214_ _1217_/B _1217_/A _1215_/C vdd gnd OR2X2
X_1145_ _969_/A _1301_/A _960_/A _1164_/A vdd gnd OAI21X1
XFILL_1__1330_ vdd gnd FILL
XFILL_0__1419_ vdd gnd FILL
XFILL_1__1192_ vdd gnd FILL
XFILL_1__1261_ vdd gnd FILL
XFILL_3__1128_ vdd gnd FILL
X_1076_ _1077_/A _1781_/A _1325_/B _1237_/C vdd gnd NAND3X1
XFILL_3__1059_ vdd gnd FILL
XFILL_1__1459_ vdd gnd FILL
XFILL_2__1370_ vdd gnd FILL
XFILL_1__1528_ vdd gnd FILL
XFILL_2__919_ vdd gnd FILL
XFILL_0__972_ vdd gnd FILL
X_925_ reset _925_/Y vdd gnd INVX8
XFILL_0__1770_ vdd gnd FILL
XFILL_2__1568_ vdd gnd FILL
XFILL_2__1637_ vdd gnd FILL
XFILL_2__1706_ vdd gnd FILL
XCLKBUF1_insert12 clk _1630_/CLK vdd gnd CLKBUF1
XFILL_2__1499_ vdd gnd FILL
XFILL_0__1204_ vdd gnd FILL
X_1763_ _1784_/A _945_/A _1763_/C _1765_/B vdd gnd AOI21X1
X_1694_ _1780_/A _988_/A _1694_/C _1780_/D _1698_/A vdd gnd AOI22X1
XFILL_0__1135_ vdd gnd FILL
XFILL_0__1066_ vdd gnd FILL
XFILL_3__1815_ vdd gnd FILL
XFILL_1__937_ vdd gnd FILL
XFILL_3__1746_ vdd gnd FILL
XFILL_3__1677_ vdd gnd FILL
XFILL_1__1313_ vdd gnd FILL
X_1059_ _1108_/B _1074_/C _1108_/A _1067_/A vdd gnd OAI21X1
X_1128_ _1128_/A _1128_/B _1128_/C _1129_/B vdd gnd NAND3X1
XFILL_1__1175_ vdd gnd FILL
XFILL_1__1244_ vdd gnd FILL
XFILL_2__1422_ vdd gnd FILL
XFILL_2__1284_ vdd gnd FILL
XFILL_2__1353_ vdd gnd FILL
XFILL_0__955_ vdd gnd FILL
X_908_ LoadCmd_i _924_/A vdd gnd INVX1
XFILL_0__1822_ vdd gnd FILL
XFILL_2_BUFX2_insert19 vdd gnd FILL
XFILL_0__1753_ vdd gnd FILL
XFILL_3__1600_ vdd gnd FILL
XFILL_0__1684_ vdd gnd FILL
XFILL_3__1393_ vdd gnd FILL
XFILL_3__1462_ vdd gnd FILL
X_1815_ _1815_/A _1815_/B _1815_/C _1817_/A vdd gnd NAND3X1
X_1746_ _1746_/A _1746_/B _1802_/B _1747_/A vdd gnd OAI21X1
X_1677_ _1706_/A _1783_/C _1683_/B _1684_/B vdd gnd OAI21X1
XFILL_0__1118_ vdd gnd FILL
XFILL_0__1049_ vdd gnd FILL
XFILL_1__1793_ vdd gnd FILL
XFILL_1_BUFX2_insert5 vdd gnd FILL
XFILL_1__1227_ vdd gnd FILL
XFILL_1__1158_ vdd gnd FILL
XFILL_1__1089_ vdd gnd FILL
XFILL_2__1405_ vdd gnd FILL
XFILL94350x82050 vdd gnd FILL
XFILL_0__938_ vdd gnd FILL
XFILL_2__1267_ vdd gnd FILL
XFILL_2__1198_ vdd gnd FILL
XFILL_2__1336_ vdd gnd FILL
X_1531_ _949_/A _1531_/B _1531_/C _1532_/A vdd gnd OAI21X1
X_1600_ _937_/A _1607_/B _1600_/C _1628_/D vdd gnd OAI21X1
X_1462_ _1462_/A _1462_/B _1462_/C _1466_/C vdd gnd OAI21X1
XFILL_0__1805_ vdd gnd FILL
XFILL_0__1736_ vdd gnd FILL
XFILL_3__1514_ vdd gnd FILL
X_1393_ _1445_/A _1456_/C _1393_/C _1394_/A vdd gnd OAI21X1
XFILL_3__1445_ vdd gnd FILL
XFILL_0__1598_ vdd gnd FILL
XFILL_0__1667_ vdd gnd FILL
XFILL_1__1012_ vdd gnd FILL
X_1729_ _1778_/A _939_/A _1732_/B vdd gnd AND2X2
XFILL_1__1776_ vdd gnd FILL
XFILL_2__1052_ vdd gnd FILL
XFILL_2__1121_ vdd gnd FILL
XFILL_3__934_ vdd gnd FILL
XFILL_0__1521_ vdd gnd FILL
XFILL_0__1452_ vdd gnd FILL
XFILL_2__1319_ vdd gnd FILL
XFILL_0__1383_ vdd gnd FILL
XFILL_3__1230_ vdd gnd FILL
XFILL_3__1161_ vdd gnd FILL
X_1514_ _1520_/B _1520_/A _1517_/C vdd gnd NOR2X1
X_1445_ _1445_/A _1456_/C _1445_/C _1445_/D _1447_/B vdd gnd OAI22X1
XFILL_0__1719_ vdd gnd FILL
XFILL_1__1561_ vdd gnd FILL
XFILL_1__1492_ vdd gnd FILL
X_1376_ _988_/B _948_/A _1439_/A vdd gnd NAND2X1
XFILL_2__952_ vdd gnd FILL
XFILL_3__1359_ vdd gnd FILL